test/testfiles/synthetic_data_v30.raw
0,100.0,30 / PSS(tm)E-30 RAW created
MODEL VERSION
SOME OTHER COMMENTS
111,'STBC      ',161.00,1,    0.00,    0.00,227,   1,1.09814,  -8.327,  1 /* [STBC   1   ] */
112,'D2JK  ', 69.00,1,    0.00,    0.00,117,   1,1.04896,  -7.247,  2 /* [D2JK  5   ] */
113,'7HJG#  ', 69.00,1,    0.00,    0.00,127,   1,1.02894,  -4.139,  2 /* [D2JK 6   ] */
0  / end of bus cards
111,'G1',1,227,   1,   -0.004,   -0.000,   -0.003,   -0.000,    0.000,   -0.000,  1 /* [STBC   G1                   ] */
113,' G2',1,227,   1,    0.345,    0.024,    0.711,    0.076,   -0.028,    0.003,  2 /* [D2JK LG1                  ] */
0 / end of load cards
111,'ST',     0.00,     0.00,  110.000,    0.000,  1.01375,334153,   161.0, 0.0, 1.0, 0.0, 0.0, 1.0,1, 200.0,   90.00,     0.00,  1,1.00 /* [STBC   ST                   ] */
-112,'PV ',     3.10,   -91.00,   91.000,  -31.000,  1.14634,     0,   175.0, 0.0, 1.0, 0.0, 0.0, 1.0,1, 300.0,    91.00,     0.00,  2,1.00 /* [D2JK   G1                   ] */
113,'1',   313.01,    82.29,  147.000,  -72.000,  1.12330,     0,   380.0, 0.0, 1.0, 0.0, 0.0, 1.0,1,  55.1,   229.00,     0.00,  2,1.00 /* [D2JK     1                   ] */
0 / end of unit cards
111, 112,3 ,      0.001870,      0.004420,      0.00227,   322,   322,   322, 0.0, 0.0, 0.0, 0.0, 1,    0.000,  1,1.00 /* [STBC 3              ] */
111, -113,B ,      0.029380,      0.045470,      0.00094,    67,    67,    67, 0.0, 0.0, 0.0, 0.0, 1,    0.000,  1,1.00 /* [D2JK B              ] */
112, 113,C ,      0.024915,      0.019260,      0.01019,   546,   546,   546, 0.0, 0.0, 0.0, 0.0, 1,    0.000,  1,1.00 /* [D2JK C              ] */
0 / end of branch cards
112,113,     0,'G1', 1, 1, 1,  0.000000,  0.000000, 2,'    XF10     ', 1, 26,1.00
  0.032470,  0.065600,200.0
 1.0000, 350.00,     0.000,   310,   310,   310,  0,      0,   1.0000,   1.0000,   0.0000,   0.0000,    2               , 0,0.0000,0.0000 /* [ATBFL  XF10                  ] */
 1.0000,  169.00
0 / end of transformer adjustment cards
113,456, 2121.7211,    6.0000,'ABC     '
0 / end of area interchange cards
0 / end of 2-terminal DC line cards
0 / end of Voltage Source Converter cards
113,0, 1.123, 1.123,     0, 100.0,' '     ,     26.00, 1,  26.00                                                                                       /* [GILLY   113  ] */
0 / end of transformer impedance correction table cards
0 / end of multi-terminal DC line cards
0 / end of multi-section line cards
117,'ABC ' /*[ABC ] */
127,'CDEF' /*[CDEF] */
227,' CDEG ' /*[ CDEG] */
0 / end of zone cards
0 / end of area transaction cards
1,'      ABC   '
2,'      CDE  '
0 / end of owner cards
0 / end of FACTS device cards
